# File generated by Flopy version 3.6.0.dev0 on 02/07/2024 at 20:14:53.
BEGIN options
  SAVE_FLOWS
END options

BEGIN packages
  DIS6  case1.dis  dis
  OBS6  case1.obs  obs_0
  IC6  case1.ic  ic
  NPF6  case1.npf  npf
  STO6  case1.sto  sto
  CSUB6  case1.csub  csub
  CHD6  case1.chd  chd_0
  OC6  case1.oc  oc
END packages

